[General]
network = Area
sim-time-limit = 14400s
**.aircraftGenerator.interArrivalTime = 55s
warmup-period = 3000s

[Config Verification_Scenario1]
description="Scenario1: constant interarrival time. BSs are D/G/1 queues. Prupose: test of the constant interarrival time."
**.k = 20s
**.t = 30s

[Config Verification_Scenario2]
description="Scenario2: exponential interarrival time. BSs are M/G/1 queues. Prupose: test of the exponential interarrival time."
**.k = exponential(15s)
**.t = 30s

[Config Scenario1_k]
description="Scenario1: constant interarrival time. BSs are D/G/1 queues. Purpose: variation of k."
**.k = ${k=2s}
**.t = 30s

[Config Scenario1_t]
description="Scenario1: constant interarrival time. BSs are D/G/1 queues. Purpose: variation of t."
**.k = 20s
**.t = ${t=10s}

[Config Scenario2_k]
description="Scenario2: exponential interarrival time. BSs are M/M/1 queues. Purpose: variation of k."
**.k = ${k=exponential(10s)}
**.t = ${t=30s}

[Config Scenario2_t]
description="Scenario2: exponential interarrival time. BSs are M/M/1 queues. Prupose: variation of t."
**.k = ${k=exponential(10s)}
**.t = ${t=300s}