[General]
network = Area
sim-time-limit = 14400s

[Config Verification_Scenario1]
description="Scenario1 : constant interarrival time and exponential service time. BSs are D/G/1 queues"
**.aircraftGenerator.interArrivalTime = 55s
**.baseStation1.serviceTime = 0s
**.baseStation2.serviceTime = 0s
**.baseStation3.serviceTime = 0s
**.baseStation4.serviceTime = 0s
**.aircraftGenerator.k_generator = 10
**.aircraftGenerator.t_generator = 30
**.T_BS = ${0.0005, 0.001, 0.0015, 0.002, 0.0025, 0.003, 0.0035, 0.004, 0.0045, 0.005, 0.0055, 0.0056}

[Config Verification_Scenario2]
description="Scenario1 : constant interarrival time and exponential service time. BSs are D/G/1 queues"
**.aircraftGenerator.interArrivalTime = exponential(55s)
**.aircraftGenerator.k_generator = 10
**.aircraftGenerator.t_generator = 30
**.baseStation1.serviceTime = 1.03686s
**.baseStation2.serviceTime = 1.03686s
**.baseStation3.serviceTime = 1.03686s
**.baseStation4.serviceTime = 1.03686s
**.T_BS = ${1.03686, 2.08814, 3.08135, 4.16383, 5.2919, 6.20471, 7.34498, 8.19866, 8.9734, 10.6578, 10.72143, 11.76196}

[Config Scenario1]
description="Scenario1 : constant interarrival time and exponential service time. BSs are D/G/1 queues"
**.aircraftGenerator.interArrivalTime = 55s
**.baseStation1.serviceTime = 0s
**.baseStation2.serviceTime = 0s
**.baseStation3.serviceTime = 0s
**.baseStation4.serviceTime = 0s
**.aircraftGenerator.k_generator = ask
**.aircraftGenerator.t_generator = ask
**.T_BS = 0.001

[Config Scenario2_k]
description="Scenario2 : exponential interarrival time and exponential service time. BSs are M/M/1 queues"
**.aircraftGenerator.interArrivalTime = exponential(55s)
**.baseStation1.serviceTime = exponential(2.15s)
**.baseStation2.serviceTime = exponential(2.15s)
**.baseStation3.serviceTime = exponential(2.15s)
**.baseStation4.serviceTime = exponential(2.15s)
**.aircraftGenerator.k_generator = ${1,2,3,4,5,6,7,8,9,10,11,12,13,14,15,16,17,18,19,20,21,22,23,24,25,26,27,28,29,30,31,32,33,34,35,36,37,38,39,40}
**.aircraftGenerator.t_generator = 30
**.T_BS = 0.001

[Config Scenario2_t]
description="Scenario2 : exponential interarrival time and exponential service time. BSs are M/M/1 queues"
**.aircraftGenerator.interArrivalTime = exponential(55s)
**.baseStation1.serviceTime = exponential(2.15s)
**.baseStation2.serviceTime = exponential(2.15s)
**.baseStation3.serviceTime = exponential(2.15s)
**.baseStation4.serviceTime = exponential(2.15s)
**.aircraftGenerator.k_generator = 10
**.aircraftGenerator.t_generator = ${1,2.5,5,7.5,10,12.5,15,17.5,20,22.5,25,27.5,30,32.5,35,37.5,40,42.5,45,47.5,50,52.5,55,57.5,60,62.5,65,67.5,70,72.5,75,77.5,80,82.5,85,87.5,90,92.5,95,97.5,100}
**.T_BS = 0.001